Version 4.1
SHEET 1 2036 840
WIRE -64 -208 -352 -208
WIRE 112 -208 -64 -208
WIRE 336 -208 112 -208
WIRE 480 -208 336 -208
WIRE 1056 -208 480 -208
WIRE 1392 -208 1056 -208
WIRE 2016 -208 1392 -208
WIRE 688 -48 672 -48
WIRE 784 -48 768 -48
WIRE 112 -16 112 -208
WIRE 480 16 480 -208
WIRE -16 64 -320 64
WIRE 384 64 224 64
WIRE 672 64 672 -48
WIRE 688 64 672 64
WIRE 784 80 784 -48
WIRE 784 80 752 80
WIRE 832 80 832 64
WIRE 832 80 784 80
WIRE 688 96 656 96
WIRE 1056 112 1056 -208
WIRE -384 128 -480 128
WIRE -16 128 -384 128
WIRE 1056 128 1056 112
WIRE 656 144 656 96
WIRE 1392 144 1392 -208
WIRE -320 176 -320 64
WIRE -128 176 -320 176
WIRE 112 192 112 160
WIRE 256 192 112 192
WIRE 832 192 832 80
WIRE 928 192 832 192
WIRE 1296 192 1168 192
WIRE 1680 192 1504 192
WIRE -64 208 -64 -208
WIRE 112 208 -64 208
WIRE -480 224 -480 128
WIRE -320 224 -320 176
WIRE 336 240 336 -208
WIRE 464 240 336 240
WIRE 480 240 480 128
WIRE 624 240 480 240
WIRE 928 256 832 256
WIRE 112 288 112 208
WIRE 112 304 112 288
WIRE 464 320 464 240
WIRE -128 368 -128 176
WIRE -16 368 -128 368
WIRE 368 368 224 368
WIRE 832 368 832 256
WIRE 832 368 576 368
WIRE -384 432 -384 128
WIRE -16 432 -384 432
WIRE 112 752 112 464
WIRE 112 752 -352 752
WIRE 256 752 256 192
WIRE 256 752 112 752
WIRE 464 752 464 432
WIRE 464 752 256 752
WIRE 624 752 624 240
WIRE 624 752 464 752
WIRE 1056 752 1056 288
WIRE 1056 752 624 752
WIRE 1392 752 1392 256
WIRE 1392 752 1056 752
WIRE 2016 752 1392 752
FLAG -432 -208 0
FLAG 2016 -208 0
FLAG -432 752 0
FLAG 2016 752 0
FLAG -96 0 0
FLAG -96 304 0
FLAG 848 128 0
FLAG 656 144 0
FLAG -480 304 0
FLAG -320 304 0
SYMBOL Weight_Adder 96 64 R0
SYMATTR InstName X1
SYMATTR SpiceLine R1=8.375k R2=9.728k Rf=10k Rb=10k
SYMBOL Weight_Adder 96 368 R0
SYMATTR InstName X2
SYMATTR SpiceLine R1=8.375k R2=9.728k Rf=10k Rb=10k
SYMBOL voltage -336 -208 R90
WINDOW 0 -32 56 VBottom 2
WINDOW 3 32 56 VTop 2
SYMATTR InstName V1
SYMATTR Value 15
SYMBOL voltage -336 752 R90
WINDOW 0 -32 56 VBottom 2
WINDOW 3 32 56 VTop 2
SYMATTR InstName V2
SYMATTR Value -15
SYMBOL ReLU 464 384 R0
SYMATTR InstName X4
SYMBOL ReLU 480 80 R0
SYMATTR InstName X3
SYMBOL Weight_Adder 1040 192 R0
SYMATTR InstName X5
SYMATTR SpiceLine R1=5.97k R2=10.27k Rf=10k Rb=10k
SYMBOL ReLU 1392 208 R0
SYMATTR InstName X6
SYMBOL voltage 0 304 R90
WINDOW 0 -32 56 VBottom 2
WINDOW 3 32 56 VTop 2
SYMATTR InstName V3
SYMATTR Value 1
SYMBOL voltage 0 0 R90
WINDOW 0 -32 56 VBottom 2
WINDOW 3 32 56 VTop 2
SYMATTR InstName V4
SYMATTR Value 1
SYMBOL voltage 944 128 R90
WINDOW 0 -32 56 VBottom 2
WINDOW 3 32 56 VTop 2
WINDOW 123 0 0 Left 0
WINDOW 39 0 0 Left 0
SYMATTR InstName V5
SYMATTR Value 1
SYMBOL LM741 720 16 R0
SYMATTR InstName U1
SYMBOL res 688 48 R90
WINDOW 0 0 56 VBottom 2
WINDOW 3 32 56 VTop 2
SYMATTR InstName R1
SYMATTR Value 10k
SYMBOL res 784 -64 R90
WINDOW 0 0 56 VBottom 2
WINDOW 3 32 56 VTop 2
SYMATTR InstName R2
SYMATTR Value 10k
SYMBOL voltage -480 208 R0
SYMATTR InstName V6
SYMATTR Value 5
SYMBOL voltage -320 208 R0
SYMATTR InstName V7
SYMATTR Value 0
TEXT -512 824 Left 2 !.tran 0 2 0 1m
